$DATA1 SOURCE='HSPICE' VERSION='K-2015.06-SP2 linux64' PARAM_COUNT=0
.TITLE ' '
 curr_vdd1        pwr_vdd1         curr_vco1        pwr_vco1        
 curr_vco2        pwr_vco2         total_pwr        temper          
 alter#          
  6.301e-10        3.781e-10       -8.254e-07       -4.672e-07      
 -8.254e-07       -4.672e-07       -9.340e-07        2.500e+01      
 1               
