$DATA1 SOURCE='HSPICE' VERSION='K-2015.06-SP2 linux64' PARAM_COUNT=0
.TITLE ' '
 curr_vdd1        pwr_vdd1         curr_vco1        pwr_vco1        
 curr_vco2        pwr_vco2         total_pwr        temper          
 alter#          
 -2.849e-08       -2.849e-08       -1.326e-06       -1.103e-07      
 -1.326e-06       -1.105e-06       -1.243e-06        2.500e+01      
 1               
