$DATA1 SOURCE='HSPICE' VERSION='K-2015.06-SP2 linux64' PARAM_COUNT=0
.TITLE ' '
 curr_vdd1        pwr_vdd1         curr_vco1        pwr_vco1        
 curr_vco2        pwr_vco2         curr_vco3        pwr_vco3        
 total_pwr        temper           alter#          
 -1.271e-03       -1.271e-03       -3.744e-07       -1.247e-07      
 -6.866e-06       -6.481e-06       -3.859e-07       -4.631e-08      
 -1.277e-03        2.500e+01       1               
