$DATA1 SOURCE='HSPICE' VERSION='K-2015.06-SP2 linux64' PARAM_COUNT=0
.TITLE ' '
 curr_vdd1        pwr_vdd1         curr_vco1        pwr_vco1        
 curr_vco2        pwr_vco2         curr_vco3        pwr_vco3        
 total_pwr        temper           alter#          
  6.301e-10        6.301e-10       -2.250e-07       -7.493e-08      
 -4.122e-06       -3.891e-06       -2.319e-07       -2.782e-08      
 -3.993e-06        2.500e+01       1               
